units(length='cm', time='s', quantity='mol', act_energy='kcal/mol')

ideal_gas(name='gas',
          elements="H D T C Ci O Oi N Ne Ar He Si S Cl X",
          species="""Ar          Ne          N2          CH4(2)
                     O2(3)       CO2(4)      H2O(5)      H2(6)
                     CO(7)       C2H6(8)     CH2O(9)     CH3(10)
                     C3H8(11)    H(12)       C2H5(13)    CH3OH(14)
                     HCO(15)     CH3CHO(16)  OH(17)      C2H4(18)
                     C2H4(47)    CH3OO(77)""",
          reactions='gas-*',
          transport='Mix',
          initial_state=state(temperature=300.0, pressure=OneAtm))

ideal_interface(name='surface1',
                elements="H D T C Ci O Oi N Ne Ar He Si S Cl X",
                species="""X(1)      HX(19)    OX(20)    CH3X(21)  HOX(22)
                          H2OX(23)  CO2X(24)  OCX(25)   CX(26)    CH2X(27)
                          CHX(28)   CH4X(48)  H2X(49)   COX(50)   CHOX(53)""",
                site_density=2.72e-09,
                phases="gas",
          reactions='surface1-*',
                initial_state=state(temperature=300.0, pressure=OneAtm))

#-------------------------------------------------------------------------------
# Element data
#-------------------------------------------------------------------------------

element(symbol=u'X', atomic_mass=195.083)
element(symbol=u'Ci', atomic_mass=13.003)
element(symbol=u'D', atomic_mass=2.014)
element(symbol=u'Oi', atomic_mass=18.0)
element(symbol=u'T', atomic_mass=3.016)
#-------------------------------------------------------------------------------
# Species data
#-------------------------------------------------------------------------------

species(name=u'Ar',
        atoms='Ar:1',
        thermo=(NASA([200.00, 1000.00],
                     [ 2.50000000E+00,  0.00000000E+00,  0.00000000E+00,
                       0.00000000E+00,  0.00000000E+00, -7.45375000E+02,
                       4.37967000E+00]),
                NASA([1000.00, 6000.00],
                     [ 2.50000000E+00,  0.00000000E+00,  0.00000000E+00,
                       0.00000000E+00,  0.00000000E+00, -7.45375000E+02,
                       4.37967000E+00])),
        transport=gas_transport(geom='atom',
                                diam=3.33,
                                well_depth=136.5))

species(name=u'Ne',
        atoms='Ne:1',
        thermo=(NASA([200.00, 1000.00],
                     [ 2.50000000E+00,  0.00000000E+00,  0.00000000E+00,
                       0.00000000E+00,  0.00000000E+00, -7.45375000E+02,
                       3.35532000E+00]),
                NASA([1000.00, 6000.00],
                     [ 2.50000000E+00,  0.00000000E+00,  0.00000000E+00,
                       0.00000000E+00,  0.00000000E+00, -7.45375000E+02,
                       3.35532000E+00])),
        transport=gas_transport(geom='atom',
                                diam=3.758,
                                well_depth=148.6))

species(name=u'N2',
        atoms='N:2',
        thermo=(NASA([200.00, 1000.00],
                     [ 3.53101000E+00, -1.23661000E-04, -5.02999000E-07,
                       2.43531000E-09, -1.40881000E-12, -1.04698000E+03,
                       2.96747000E+00]),
                NASA([1000.00, 6000.00],
                     [ 2.95258000E+00,  1.39690000E-03, -4.92632000E-07,
                       7.86010000E-11, -4.60755000E-15, -9.23949000E+02,
                       5.87189000E+00])),
        transport=gas_transport(geom='linear',
                                diam=3.621,
                                well_depth=97.53,
                                polar=1.76,
                                rot_relax=4.0))

species(name=u'CH4(2)',
        atoms='H:4 C:1',
        thermo=(NASA([100.00, 1084.12],
                     [ 4.20541524E+00, -5.35557362E-03,  2.51123265E-05,
                      -2.13762843E-08,  5.97523937E-12, -1.01619433E+04,
                      -9.21279283E-01]),
                NASA([1084.12, 5000.00],
                     [ 9.08265721E-01,  1.14540858E-02, -4.57173828E-06,
                       8.29191671E-10, -5.66314895E-14, -9.71997444E+03,
                       1.39930944E+01])),
        transport=gas_transport(geom='nonlinear',
                                diam=3.746,
                                well_depth=141.4,
                                polar=2.6,
                                rot_relax=13.0))

species(name=u'O2(3)',
        atoms='O:2',
        thermo=(NASA([100.00, 1074.56],
                     [ 3.53732181E+00, -1.21570930E-03,  5.31617826E-06,
                      -4.89443424E-09,  1.45845042E-12, -1.03858846E+03,
                       4.68368406E+00]),
                NASA([1074.56, 5000.00],
                     [ 3.15382425E+00,  1.67803802E-03, -7.69971022E-07,
                       1.51274714E-10, -1.08781801E-14, -1.04081878E+03,
                       6.16753884E+00])),
        transport=gas_transport(geom='linear',
                                diam=3.467,
                                well_depth=106.7))

species(name=u'CO2(4)',
        atoms='C:1 O:2',
        thermo=(NASA([100.00, 978.21],
                     [ 3.28084634E+00,  2.50183460E-03,  8.08199998E-06,
                      -1.20511416E-08,  4.66547255E-12, -4.84008304E+04,
                       6.00080795E+00]),
                NASA([978.21, 5000.00],
                     [ 4.67426743E+00,  2.60964031E-03, -9.85689857E-07,
                       1.95713857E-10, -1.49836245E-14, -4.89512140E+04,
                      -2.11073617E+00])),
        transport=gas_transport(geom='linear',
                                diam=3.941,
                                well_depth=195.201))

species(name=u'H2O(5)',
        atoms='H:2 O:1',
        thermo=(NASA([100.00, 1130.24],
                     [ 4.05763610E+00, -7.87938871E-04,  2.90878480E-06,
                      -1.47520039E-09,  2.12847506E-13, -3.02815866E+04,
                      -3.11365027E-01]),
                NASA([1130.24, 5000.00],
                     [ 2.84324866E+00,  2.75108838E-03, -7.81033120E-07,
                       1.07244016E-10, -5.79395308E-15, -2.99586120E+04,
                       5.91043011E+00])),
        transport=gas_transport(geom='nonlinear',
                                diam=2.641,
                                well_depth=809.102,
                                polar=1.76,
                                rot_relax=4.0))

species(name=u'H2(6)',
        atoms='H:2',
        thermo=(NASA([100.00, 1959.08],
                     [ 3.43536412E+00,  2.12710353E-04, -2.78625043E-07,
                       3.40267167E-10, -7.76031998E-14, -1.03135984E+03,
                      -3.90841732E+00]),
                NASA([1959.08, 5000.00],
                     [ 2.78816583E+00,  5.87640942E-04,  1.59010417E-07,
                      -5.52739026E-11,  4.34310984E-15, -5.96144270E+02,
                       1.12732655E-01])),
        transport=gas_transport(geom='linear',
                                diam=2.833,
                                well_depth=59.7))

species(name=u'CO(7)',
        atoms='C:1 O:1',
        thermo=(NASA([100.00, 1571.63],
                     [ 3.56838038E+00, -8.52129500E-04,  2.48918819E-06,
                      -1.56331996E-09,  3.13598127E-13, -1.42842550E+04,
                       3.57912028E+00]),
                NASA([1571.63, 5000.00],
                     [ 2.91305202E+00,  1.64659937E-03, -6.88625686E-07,
                       1.21039677E-10, -7.84035796E-15, -1.41808768E+04,
                       6.71054299E+00])),
        transport=gas_transport(geom='linear',
                                diam=3.69,
                                well_depth=91.7,
                                polar=1.76,
                                rot_relax=4.0))

species(name=u'C2H6(8)',
        atoms='H:6 C:2',
        thermo=(NASA([100.00, 1012.42],
                     [ 3.72239291E+00,  1.65083841E-03,  3.44175530E-05,
                      -3.76858229E-08,  1.24450657E-11, -1.15575901E+04,
                       4.68247999E+00]),
                NASA([1012.42, 5000.00],
                     [ 2.82848257E+00,  1.73040568E-02, -6.73334245E-06,
                       1.23742024E-09, -8.65676410E-14, -1.19978080E+04,
                       5.93811707E+00])),
        transport=gas_transport(geom='nonlinear',
                                diam=4.302,
                                well_depth=252.3,
                                rot_relax=1.5))

species(name=u'CH2O(9)',
        atoms='H:2 C:1 O:1',
        thermo=(NASA([100.00, 1070.44],
                     [ 4.12927802E+00, -4.08401318E-03,  2.03229341E-05,
                      -1.83524244E-08,  5.37975522E-12, -1.44294640E+04,
                       3.22418463E+00]),
                NASA([1070.44, 5000.00],
                     [ 2.21172442E+00,  7.94265679E-03, -3.34193053E-06,
                       6.28471401E-10, -4.40431446E-14, -1.42974456E+04,
                       1.13048985E+01])),
        transport=gas_transport(geom='nonlinear',
                                diam=3.59,
                                well_depth=498.0,
                                rot_relax=2.0))

species(name=u'CH3(10)',
        atoms='H:3 C:1',
        thermo=(NASA([100.00, 697.71],
                     [ 3.96043098E+00,  5.92939934E-04,  8.78575390E-06,
                      -9.88030557E-09,  3.63234580E-12,  1.64218818E+04,
                       3.39865631E-01]),
                NASA([697.71, 5000.00],
                     [ 3.09511187E+00,  5.55429874E-03, -1.88158855E-06,
                       3.13335012E-10, -2.05195181E-14,  1.65426192E+04,
                       4.20297876E+00])),
        transport=gas_transport(geom='nonlinear',
                                diam=3.8,
                                well_depth=144.0))

species(name=u'C3H8(11)',
        atoms='H:8 C:3',
        thermo=(NASA([100.00, 989.99],
                     [ 3.06336167E+00,  1.29214561E-02,  3.47032808E-05,
                      -4.70946154E-08,  1.71384141E-11, -1.43905789E+04,
                       1.07835592E+01]),
                NASA([989.99, 5000.00],
                     [ 5.60440043E+00,  2.19528785E-02, -8.22080610E-06,
                       1.50103993E-09, -1.05635358E-13, -1.58394038E+04,
                      -6.22623300E+00])),
        transport=gas_transport(geom='nonlinear',
                                diam=4.982,
                                well_depth=266.801,
                                rot_relax=1.0))

species(name=u'H(12)',
        atoms='H:1',
        thermo=(NASA([100.00, 3459.60],
                     [ 2.50000000E+00,  9.24384602E-15, -1.36779837E-17,
                       6.66184769E-21, -1.00106912E-24,  2.54742178E+04,
                      -4.44972896E-01]),
                NASA([3459.60, 5000.00],
                     [ 2.49999999E+00,  9.20455546E-12, -3.58608293E-15,
                       6.15198922E-19, -3.92041801E-23,  2.54742178E+04,
                      -4.44972842E-01])),
        transport=gas_transport(geom='atom',
                                diam=2.05,
                                well_depth=145.0))

species(name=u'C2H5(13)',
        atoms='H:5 C:2',
        thermo=(NASA([100.00, 1006.87],
                     [ 3.68746539E+00,  3.06889693E-03,  2.55873112E-05,
                      -2.94076576E-08,  9.94076215E-12,  1.31153648E+04,
                       6.96684864E+00]),
                NASA([1006.87, 5000.00],
                     [ 3.53781010E+00,  1.37311636E-02, -5.29564638E-06,
                       9.71482858E-10, -6.80289490E-14,  1.26351790E+04,
                       5.15566048E+00])),
        transport=gas_transport(geom='nonlinear',
                                diam=4.302,
                                well_depth=252.3,
                                rot_relax=1.5))

species(name=u'CH3OH(14)',
        atoms='H:4 C:1 O:1',
        thermo=(NASA([100.00, 1035.75],
                     [ 3.84006214E+00,  1.38241998E-03,  1.91667191E-05,
                      -2.01568660E-08,  6.39102259E-12, -2.56083087E+04,
                       5.90978137E+00]),
                NASA([1035.75, 5000.00],
                     [ 2.79184298E+00,  1.15827852E-02, -4.51551928E-06,
                       8.21206706E-10, -5.67063250E-14, -2.57211674E+04,
                       9.41061586E+00])),
        transport=gas_transport(geom='nonlinear',
                                diam=3.626,
                                well_depth=481.8,
                                rot_relax=1.0))

species(name=u'HCO(15)',
        atoms='H:1 C:1 O:1',
        thermo=(NASA([100.00, 1112.10],
                     [ 4.05936407E+00, -1.73846452E-03,  9.14981041E-06,
                      -8.01131526E-09,  2.25737264E-12,  3.84377617E+03,
                       3.32449702E+00]),
                NASA([1112.10, 5000.00],
                     [ 3.05136186E+00,  4.11706437E-03, -1.75586433E-06,
                       3.29302821E-10, -2.29174030E-14,  3.93007923E+03,
                       7.67464289E+00])),
        transport=gas_transport(geom='nonlinear',
                                diam=3.59,
                                well_depth=498.0))

species(name=u'CH3CHO(16)',
        atoms='H:4 C:2 O:1',
        thermo=(NASA([100.00, 1028.81],
                     [ 3.57991319E+00,  5.18996203E-03,  2.26893060E-05,
                      -2.73736957E-08,  9.28455869E-12, -2.13697369E+04,
                       8.96975431E+00]),
                NASA([1028.81, 5000.00],
                     [ 4.08568882E+00,  1.39060358E-02, -5.59365394E-06,
                       1.04608143E-09, -7.38729265E-14, -2.20391558E+04,
                       3.76773341E+00])),
        transport=gas_transport(geom='nonlinear',
                                diam=3.97,
                                well_depth=436.0,
                                rot_relax=2.0))

species(name=u'OH(17)',
        atoms='H:1 O:1',
        thermo=(NASA([100.00, 1145.75],
                     [ 3.51456768E+00,  2.92814373E-05, -5.32176582E-07,
                       1.01950588E-09, -3.85951152E-13,  3.41425421E+03,
                       2.10435015E+00]),
                NASA([1145.75, 5000.00],
                     [ 3.07194246E+00,  6.04011411E-04, -1.39759127E-08,
                      -2.13451563E-11,  2.48070095E-15,  3.57938557E+03,
                       4.57798500E+00])),
        transport=gas_transport(geom='linear',
                                diam=2.75,
                                well_depth=80.0))

species(name=u'C2H4(18)',
        atoms='H:4 C:2',
        thermo=(NASA([100.00, 979.36],
                     [ 3.97471606E+00, -4.75844285E-03,  4.16783770E-05,
                      -4.51392516E-08,  1.54224761E-11,  4.91540746E+03,
                       3.62430844E+00]),
                NASA([979.36, 5000.00],
                     [ 3.55660610E+00,  1.10627464E-02, -4.17019079E-06,
                       7.85586770E-10, -5.70060829E-14,  4.32046489E+03,
                       2.17719479E+00])),
        transport=gas_transport(geom='nonlinear',
                                diam=3.971,
                                well_depth=280.8,
                                rot_relax=1.5))

species(name=u'C2H4(47)',
        atoms='H:4 C:2',
        thermo=(NASA([100.00, 846.11],
                     [ 3.36869114E+00,  1.64232504E-02, -2.16503709E-05,
                       2.18227984E-08, -8.70182877E-12,  4.28682838E+04,
                       2.18539333E+01]),
                NASA([846.11, 5000.00],
                     [ 2.62344910E+00,  1.38429140E-02, -6.25541075E-06,
                       1.16703453E-09, -7.95359410E-14,  4.32128675E+04,
                       2.66158079E+01])),
        transport=gas_transport(geom='nonlinear',
                                diam=4.443,
                                well_depth=110.7))

species(name=u'CH3OO(77)',
        atoms='H:3 C:1 O:2',
        thermo=(NASA([100.00, 1031.35],
                     [ 3.58600855E+00,  6.15348645E-03,  1.33269290E-05,
                      -1.76581521E-08,  6.13210932E-12,  2.48233564E+02,
                       9.74096027E+00]),
                NASA([1031.35, 5000.00],
                     [ 4.35022282E+00,  1.07183275E-02, -4.26215078E-06,
                       7.89578335E-10, -5.53846326E-14, -3.09810145E+02,
                       4.08928223E+00])),
        transport=gas_transport(geom='nonlinear',
                                diam=3.69,
                                well_depth=417.0,
                                dipole=1.7,
                                rot_relax=2.0))

species(name=u'X(1)',
        atoms='X:1',
        thermo=(NASA([100.00, 1554.80],
                     [ 7.10139498E-03, -4.25619522E-05,  8.98533016E-08,
                      -7.80193649E-11,  2.32465471E-14, -8.76101712E-01,
                      -3.11211229E-02]),
                NASA([1554.80, 5000.00],
                     [ 1.60299900E-01, -2.52235409E-04,  1.14181275E-07,
                      -1.21471653E-11,  3.85790025E-16, -7.08100885E+01,
                      -9.09527530E-01])))

species(name=u'HX(19)',
        atoms='H:1 X:1',
        thermo=(NASA([100.00, 952.91],
                     [-3.80965452E-01,  5.47228709E-03,  2.60912778E-06,
                      -9.64961980E-09,  4.63946753E-12, -3.37659580E+03,
                       1.01725550E+00]),
                NASA([952.91, 5000.00],
                     [ 2.80339655E+00, -5.41047017E-04,  4.99507978E-07,
                      -7.54963647E-11,  3.06772366E-15, -4.31734521E+03,
                      -1.59436787E+01])))

species(name=u'OX(20)',
        atoms='X:1 O:1',
        thermo=(NASA([100.00, 888.26],
                     [-7.59007329E-01,  1.89867771E-02, -3.82470955E-05,
                       3.43554391E-08, -1.13972478E-11, -2.91219640E+04,
                       1.76015370E+00]),
                NASA([888.26, 5000.00],
                     [ 1.89892178E+00,  2.03297975E-03, -1.19978087E-06,
                       2.32684304E-10, -1.53511352E-14, -2.93975041E+04,
                      -9.64096026E+00])))

species(name=u'CH3X(21)',
        atoms='H:3 C:1 X:1',
        thermo=(NASA([100.00, 848.30],
                     [-1.21090496E+00,  2.92390681E-02, -4.49011079E-05,
                       3.86009808E-08, -1.30361041E-11, -5.59221778E+03,
                       6.80939750E+00]),
                NASA([848.30, 5000.00],
                     [ 1.62290877E+00,  1.12987268E-02, -5.08316908E-06,
                       9.46833581E-10, -6.42885536E-14, -5.90828268E+03,
                      -5.42501059E+00])))

species(name=u'HOX(22)',
        atoms='H:1 O:1 X:1',
        thermo=(NASA([100.00, 914.58],
                     [-1.29513706E+00,  3.36476246E-02, -7.07717851E-05,
                       6.54315116E-08, -2.19410183E-11, -2.52885685E+04,
                       4.37624874E+00]),
                NASA([914.58, 5000.00],
                     [ 2.43515780E+00,  4.64644986E-03, -2.40014139E-06,
                       4.26415498E-10, -2.60661215E-14, -2.54403185E+04,
                      -1.03865094E+01])))

species(name=u'H2OX(23)',
        atoms='H:2 O:1 X:1',
        thermo=(NASA([100.00, 912.85],
                     [-1.34340138E+00,  3.66695539E-02, -7.99480721E-05,
                       7.74125241E-08, -2.68665364E-11, -3.23490305E+04,
                       1.10237667E+01]),
                NASA([912.85, 5000.00],
                     [ 1.12158920E+00,  8.16639256E-03, -4.02358034E-06,
                       7.20420773E-10, -4.51442235E-14, -3.20615235E+04,
                       3.39615620E+00])))

species(name=u'CO2X(24)',
        atoms='X:1 C:1 O:2',
        thermo=(NASA([100.00, 953.60],
                     [ 3.09268416E+00,  5.29285051E-03,  8.99424169E-06,
                      -1.67126189E-08,  7.04895731E-12, -4.52128351E+04,
                      -5.10054525E+00]),
                NASA([953.60, 5000.00],
                     [ 5.99804988E+00,  2.27482238E-03, -6.81075329E-07,
                       1.34428306E-10, -1.11506248E-14, -4.61838333E+04,
                      -2.11650815E+01])))

species(name=u'OCX(25)',
        atoms='X:1 C:1 O:1',
        thermo=(NASA([100.00, 891.33],
                     [-1.38214670E+00,  3.75306103E-02, -8.29761135E-05,
                       8.09705358E-08, -2.85472623E-11, -3.34615929E+04,
                       4.35449609E+00]),
                NASA([891.33, 5000.00],
                     [ 1.38092053E+00,  8.05716548E-03, -4.64307501E-06,
                       8.91167184E-10, -5.90045403E-14, -3.32759244E+04,
                      -4.85325804E+00])))

species(name=u'CX(26)',
        atoms='X:1 C:1',
        thermo=(NASA([100.00, 1401.12],
                     [-6.04857932E-01,  1.10908424E-02, -1.34369871E-05,
                       7.18241020E-09, -1.40685955E-12,  8.35681364E+03,
                       1.48480596E+00]),
                NASA([1401.12, 5000.00],
                     [ 3.08077816E+00, -6.87491579E-04,  5.17603202E-07,
                      -9.73051930E-11,  6.24267331E-15,  7.44732989E+03,
                      -1.70992417E+01])))

species(name=u'CH2X(27)',
        atoms='H:2 C:1 X:1',
        thermo=(NASA([100.00, 1199.82],
                     [-1.02006594E+00,  2.03778552E-02, -2.17291076E-05,
                       1.15868543E-08, -2.38469979E-12,  7.03871770E+02,
                       2.99160459E+00]),
                NASA([1199.82, 5000.00],
                     [ 3.89285483E+00,  3.99892281E-03, -1.25227942E-06,
                       2.09081361E-10, -1.39642489E-14, -4.75047098E+02,
                      -2.16053707E+01])))

species(name=u'CHX(28)',
        atoms='H:1 C:1 X:1',
        thermo=(NASA([100.00, 1596.82],
                     [-9.66375239E-01,  1.63179003E-02, -1.75392280E-05,
                       8.64095863E-09, -1.55501450E-12, -1.77039678E+03,
                       2.54982370E+00]),
                NASA([1596.82, 5000.00],
                     [ 4.21481268E+00,  2.18383120E-04,  5.15662242E-07,
                      -1.20800791E-10,  8.35331125E-15, -3.02721217E+03,
                      -2.36254632E+01])))

species(name=u'CH4X(48)',
        atoms='H:4 C:1 X:1',
        thermo=(NASA([100.00, 886.29],
                     [-1.38687449E+00,  4.00450548E-02, -8.37917184E-05,
                       8.75651042E-08, -3.27875900E-11, -1.09112184E+04,
                       1.78811047E+01]),
                NASA([886.29, 5000.00],
                     [-2.16847811E+00,  1.99494198E-02, -9.80013650E-06,
                       1.83536669E-09, -1.22521982E-13, -9.84485611E+03,
                       2.67918007E+01])))

species(name=u'H2X(49)',
        atoms='H:2 X:1',
        thermo=(NASA([100.00, 911.33],
                     [-1.27856724E+00,  3.68010102E-02, -8.90296992E-05,
                       8.91132730E-08, -3.14511582E-11, -1.33397682E+03,
                       1.13160562E+01]),
                NASA([911.33, 5000.00],
                     [ 6.45631937E-01,  6.69563800E-03, -3.82690860E-06,
                       7.04725296E-10, -4.41024465E-14, -7.85256799E+02,
                       7.14633349E+00])))

species(name=u'COX(50)',
        atoms='X:1 C:1 O:1',
        thermo=(NASA([100.00, 929.00],
                     [ 3.35301865E+00,  2.26103969E-03,  2.26693939E-06,
                      -4.74058434E-09,  2.05873755E-12, -1.10950770E+04,
                      -7.42473656E+00]),
                NASA([929.00, 5000.00],
                     [ 4.10128731E+00,  1.49966159E-03, -4.76451778E-07,
                       7.90371698E-11, -5.45621582E-15, -1.13402784E+04,
                      -1.15510308E+01])))

species(name=u'CHOX(53)',
        atoms='H:1 C:1 O:1 X:1',
        thermo=(NASA([100.00, 873.22],
                     [-1.43679537E+00,  3.69243480E-02, -7.17904167E-05,
                       6.73532499E-08, -2.35178167E-11, -2.71571329E+04,
                       8.27561789E+00]),
                NASA([873.22, 5000.00],
                     [ 1.83280181E+00,  1.00778749E-02, -5.28533237E-06,
                       1.01351974E-09, -6.85184058E-14, -2.72756231E+04,
                      -4.46392059E+00])))

#-------------------------------------------------------------------------------
# Reaction data
#-------------------------------------------------------------------------------
#  Reaction index: Chemkin #1; RMG #23
#  Library reaction: BurkeH2O2inArHe
#  Flux pairs: H2(6), H(12); H2(6), H(12);

# Reaction 1
three_body_reaction('H2(6) + M <=> H(12) + H(12) + M', [4.577000e+19, -1.4, 104.38],
                    efficiencies='H2(6):2.5 CO(7):1.9 Ar:0.0 CO2(4):3.8 H2O(5):12.0',
                    id='gas-1')
#  Reaction index: Chemkin #2; RMG #24
#  Library reaction: BurkeH2O2inArHe
#  Flux pairs: H2(6), H(12); Ar, Ar; Ar, H(12);

# Reaction 2
reaction('Ar + H2(6) <=> Ar + H(12) + H(12)', [5.840000e+18, -1.1, 104.38],
         id='gas-2')
#  Reaction index: Chemkin #3; RMG #21
#  Library reaction: BurkeH2O2inArHe
#  Flux pairs: OH(17), H2O(5); H2(6), H(12);

# Reaction 3
reaction('H2(6) + OH(17) <=> H2O(5) + H(12)', [2.160000e+08, 1.51, 3.43],
         id='gas-3')
#  Reaction index: Chemkin #4; RMG #30
#  Library reaction: BurkeH2O2inArHe
#  Flux pairs: H2O(5), H(12); H2O(5), OH(17);

# Reaction 4
three_body_reaction('H2O(5) + M <=> H(12) + OH(17) + M', [6.064000e+27, -3.322, 120.79],
                    efficiencies='H2O(5):0.0 CO(7):1.9 O2(3):1.5 CO2(4):3.8 H2(6):3.0 N2:2.0',
                    id='gas-4')
#  Reaction index: Chemkin #5; RMG #31
#  Library reaction: BurkeH2O2inArHe
#  Flux pairs: H2O(5), OH(17); H2O(5), H(12); H2O(5), H2O(5);

# Reaction 5
reaction('H2O(5) + H2O(5) <=> H2O(5) + H(12) + OH(17)', [1.006000e+26, -2.44, 120.18],
         id='gas-5')
#  Reaction index: Chemkin #6; RMG #45
#  Library reaction: BurkeH2O2inArHe
#  Flux pairs: OH(17), O2(3); OH(17), H2(6);

# Reaction 6
reaction('OH(17) + OH(17) <=> O2(3) + H2(6)', [2.000000e+11, 0.51, 50.5],
         id='gas-6')
#  Reaction index: Chemkin #7; RMG #49
#  Template reaction: R_Recombination
#  Flux pairs: CH3(10), CH4(2); H(12), CH4(2);
#  Matched reaction 57 H + CH3 <=> CH4 in R_Recombination/training
#  This reaction matched rate rule [C_methyl;H_rad]
#  family: R_Recombination

# Reaction 7
reaction('CH3(10) + H(12) <=> CH4(2)', [1.930000e+14, 0.0, 0.27],
         id='gas-7')
#  Reaction index: Chemkin #8; RMG #51
#  Template reaction: R_Recombination
#  Flux pairs: CH3(10), C2H6(8); CH3(10), C2H6(8);
#  Matched reaction 9 CH3 + CH3 <=> C2H6 in R_Recombination/training
#  This reaction matched rate rule [C_methyl;C_methyl]
#  family: R_Recombination

# Reaction 8
reaction('CH3(10) + CH3(10) <=> C2H6(8)', [9.450000e+14, -0.538, 0.135],
         id='gas-8')
#  Reaction index: Chemkin #9; RMG #52
#  Template reaction: R_Recombination
#  Flux pairs: C2H5(13), C2H6(8); H(12), C2H6(8);
#  Matched reaction 58 H + C2H5 <=> C2H6-2 in R_Recombination/training
#  This reaction matched rate rule [C_rad/H2/Cs;H_rad]
#  family: R_Recombination

# Reaction 9
reaction('H(12) + C2H5(13) <=> C2H6(8)', [1.000000e+14, 0.0, 0.0],
         id='gas-9')
#  Reaction index: Chemkin #10; RMG #54
#  Template reaction: R_Recombination
#  Flux pairs: HCO(15), CH2O(9); H(12), CH2O(9);
#  Matched reaction 63 H + CHO <=> CH2O in R_Recombination/training
#  This reaction matched rate rule [CO_pri_rad;H_rad]
#  family: R_Recombination

# Reaction 10
reaction('HCO(15) + H(12) <=> CH2O(9)', [4.680000e+10, 0.0, -4.53],
         id='gas-10')
#  Reaction index: Chemkin #11; RMG #55
#  Template reaction: 1,2_Insertion_CO
#  Flux pairs: CO(7), CH2O(9); H2(6), CH2O(9);
#  Matched reaction 2 H2 + CO <=> CH2O in 1,2_Insertion_CO/training
#  This reaction matched rate rule [CO;H2]
#  family: 1,2_Insertion_CO

# Reaction 11
reaction('CO(7) + H2(6) <=> CH2O(9)', [2.890000e+09, 1.16, 82.1],
         id='gas-11')
#  Reaction index: Chemkin #12; RMG #57
#  Template reaction: R_Recombination
#  Flux pairs: C2H5(13), C3H8(11); CH3(10), C3H8(11);
#  Matched reaction 10 CH3 + C2H5 <=> C3H8 in R_Recombination/training
#  This reaction matched rate rule [C_rad/H2/Cs;C_methyl]
#  family: R_Recombination

# Reaction 12
reaction('CH3(10) + C2H5(13) <=> C3H8(11)', [1.230000e+15, -0.562, 0.021],
         id='gas-12')
#  Reaction index: Chemkin #13; RMG #62
#  Template reaction: R_Addition_MultipleBond
#  Flux pairs: C2H4(18), C2H5(13); H(12), C2H5(13);
#  Matched reaction 2541 H + C2H4 <=> C2H5-2 in R_Addition_MultipleBond/training
#  This reaction matched rate rule [Cds-HH_Cds-HH;HJ]
#  family: R_Addition_MultipleBond

# Reaction 13
reaction('H(12) + C2H4(18) <=> C2H5(13)', [4.620000e+08, 1.64, 1.01],
         id='gas-13')
#  Reaction index: Chemkin #14; RMG #66
#  Template reaction: R_Recombination
#  Flux pairs: OH(17), CH3OH(14); CH3(10), CH3OH(14);
#  Matched reaction 73 CH3 + OH <=> CH4O in R_Recombination/training
#  This reaction matched rate rule [O_pri_rad;C_methyl]
#  family: R_Recombination

# Reaction 14
reaction('CH3(10) + OH(17) <=> CH3OH(14)', [6.030000e+13, 0.0, 0.0],
         id='gas-14')
#  Reaction index: Chemkin #15; RMG #70
#  Template reaction: R_Addition_COm
#  Flux pairs: CO(7), HCO(15); H(12), HCO(15);
#  Matched reaction 4 H + CO <=> CHO in R_Addition_COm/training
#  This reaction matched rate rule [COm;H_rad]
#  family: R_Addition_COm

# Reaction 15
reaction('CO(7) + H(12) <=> HCO(15)', [1.180000e+11, 0.0, 2.72],
         id='gas-15')
#  Reaction index: Chemkin #16; RMG #72
#  Template reaction: R_Recombination
#  Flux pairs: HCO(15), CH3CHO(16); CH3(10), CH3CHO(16);
#  Matched reaction 71 CH3 + CHO <=> C2H4O in R_Recombination/training
#  This reaction matched rate rule [CO_pri_rad;C_methyl]
#  family: R_Recombination

# Reaction 16